90

O     3.451955155948188      10.476141488068265      2.82075542295129
H     4.173721903414305      10.335101962630743      2.3514555459892974
H     3.239780283850005      11.300133786175387      2.6281411028443418
O     19.552808150147357      8.61947647964978      2.809531471150416
H     19.382143140889788      7.9578144151057195      3.351895303792679
H     19.743220598292538      9.2805677607216      3.345985735447174
O     14.667071899554813      18.391983164360923      11.225483938156716
H     15.0977351786033      18.05955035297662      10.543502027843596
H     14.15236739580122      17.73617698586949      11.48254286149576
O     6.947095877445613      7.4127521256947695      18.983901401769213
H     7.241597198813812      6.652681160028409      18.67302705599042
H     7.5626645011272275      7.9836792972984325      18.74683770935014
O     17.705236850087733      15.778345504744959      13.999305036427865
H     18.37101737211233      15.96201517031106      14.53229988672521
H     17.098561204169815      15.451191956294984      14.534091887787046
O     5.889880060128745      13.221783695725408      11.24091367080219
H     5.418481287988476      12.514754610825918      11.438334112324428
H     5.288546693885574      13.842350322592427      11.121009524662261
O     9.867002942099868      0.8272029497503917      19.602091004819975
H     10.059649312681886      1.1515049929468908      18.81545429026862
H     10.641347047624453      0.7845893652230194      20.001662085671754
O     5.24100639849192      15.611909878793652      1.4964246237103485
H     5.053167537419396      15.7586654408731      2.3356272972462007
H     5.522276787117411      16.386696670905202      1.2106377183910866
O     13.524238965692797      11.877188442048372      11.311949876150472
H     14.382763043832187      12.01397721297011      11.239100721010324
H     13.403873186389744      11.781673058166415      12.170710989973546
O     5.206887108469684      8.801616212797711      0.6408515105224217
H     5.84517859369174      8.806333964609033      0.04617219970787101
H     4.9805054826799875      9.641650389197917      0.7054711823293939
O     5.014525289337428      17.155337668636324      6.049818596168229
H     5.0767387115729505      18.023222241753633      6.112966183918926
H     4.158969027496851      17.017807123490382      5.948870134182733
O     16.1682557468203      12.065668435812993      2.304754993157919
H     16.0612357754826      11.326458338716009      2.755528681481389
H     16.201545506553824      12.680078644363023      2.923199531921415
O     12.921575330182964      12.08326799380135      4.538116816341555
H     13.69901888360447      12.308509743496897      4.8635848415566745
H     12.887010483000774      12.508006081074905      3.776877965153261
O     5.870220534660502      14.507295022310831      1.1370127973360011
H     6.20060333196158      15.30901280004388      1.2328124430258414
H     6.514305696825884      13.986028866394056      1.4099920247034707
O     6.047110580104459      4.034278165545104      2.391658315718616
H     6.8611687560210965      4.3472505914509645      2.412617963756627
H     5.551851942348651      4.752132825952481      2.369628148681782
O     12.161611811222592      13.435924864200492      0.09454778024716944
H     11.500157281432484      13.922925168843673      0.3884701650660146
H     12.796653975994804      14.016901037338396      -0.04782460193230456
O     9.55590595790486      6.4024692048544205      1.7073005708413382
H     9.313477439278673      7.219603602262659      1.893315489406992
H     8.801334555984946      5.997454409941482      1.5409672449374627
O     8.842835601782399      7.2012062095662355      17.9918759135962
H     9.507182115355798      6.637012448066206      18.0294374549293
H     9.209983887058149      7.964613349726485      18.200426710697112
O     9.685510013447294      10.800274660507844      7.132961092532533
H     9.916201920041955      11.314779209241573      7.798654771009369
H     10.296951032556073      10.178003342675492      7.133178243179034
O     1.8883215419759392      11.629184792625956      3.8756740028141423
H     2.724984708305537      11.431520919666271      3.727331495642703
H     1.4848067795166433      10.856758854017267      3.835477412885357
O     7.4308443795139185      1.9131840271592357      1.8871329386874443
H     7.885082765871874      1.1691941123957563      1.9221794091110362
H     8.04749195073322      2.5274103526431366      1.8275212452717766
O     7.258094146686859      7.638900119808342      11.173803323397216
H     7.232283379982444      6.769437663633318      11.107090493864776
H     8.10390068357027      7.8273623948194855      11.072931954501405
O     18.99750249673686      6.107386824220514      16.768293869693878
H     18.898915795510057      5.366720060513448      17.21859950754546
H     18.595383677650005      5.942625175833947      16.0118311709723
O     1.0691961492214475      9.254277791421016      9.098112969652185
H     1.5724653397531094      8.541970083655766      9.07762855314061
H     1.592055704792352      9.865209167249814      9.436436038886502
O     14.817051859985327      7.226643014686816      13.204691454109543
H     14.800999836862765      6.4856118011719435      13.664796695494976
H     14.020279954688757      7.560640593737775      13.325860378005789
O     17.496125247376753      14.295008999463676      8.977507210686575
H     17.658263325155325      13.480647723670302      8.70990916095067
H     18.10471983510313      14.769599751003279      8.570741914301502
O     9.81279062961286      17.57083751446799      10.794421083321431
H     10.35887315764634      16.898102797171553      10.692914272118191
H     10.288972597367417      18.260114856250002      10.551050502331618
O     1.6210560702709653      4.191543204472701      12.642928613208792
H     0.9814936198196499      4.650817203273765      12.267283799590942
H     1.8435716013989967      4.676354504163044      13.333237675947627
O     11.326839581179348      13.010687513118537      1.7384265408193216
H     11.78058490934781      12.321277094445373      1.455742597536039
H     11.847674370862126      13.686957842206866      1.5582285279255594
O     8.107883209011641      17.66190343461405      17.17892683273326
H     7.307091609698919      18.006678513746355      17.209663118772486
H     7.962574248254275      16.80234341765087      17.212447619744783
