30

O     15.002768620114434      12.612754906530967      17.98536257561443
H     14.992501015270504      13.452482923115694      17.749072088176934
H     15.850903680630747      12.441263241841819      18.096444923740208
O     13.524905541951014      3.6269045526800494      12.181577287216829
H     12.753807302456366      3.537722559103303      12.579742877229238
H     13.374660282595409      4.238822623162203      11.578199795874497
O     18.45581756126368      15.608146780007152      0.20790054691644988
H     18.157279261884312      14.806499456811666      0.37912616712905056
H     19.18686413853957      15.462343040991852      -0.24530352581719683
O     2.2482631488690177      16.123380305874225      7.12950083251495
H     2.4691238012416608      16.907975736261424      7.4404869139543885
H     2.8529162888732746      15.591859880297953      7.465599594009559
O     1.7386830235131816      3.03297617206821      0.020486825597899584
H     1.117956475647211      2.4878120083919635      0.3008015548177064
H     2.313125774459461      3.044734164519753      0.6769615284606831
O     18.649617783391257      10.722167269278415      5.158382245922374
H     17.976072527656015      10.741652951279722      5.712493116302563
H     18.79340638453783      11.564066810873502      4.980585282949732
O     4.3599252094393455      9.674470540789669      10.935082486719793
H     3.8817996577403107      9.9269782031599      10.250452953865116
H     3.819621699376112      9.155889159497898      11.382550058719003
O     13.484818785833687      11.823339076797827      1.2850142778401195
H     14.174437433521083      11.289122041633487      1.2959705592360722
H     13.84198257501046      12.619236137809906      1.2770358084865914
O     9.545742436575232      17.190834977727146      8.298183738948222
H     10.146650919026232      16.847110306729164      7.767293819788172
H     9.911467687002805      17.131031957744536      9.087962442130731
O     2.2207319243916204      12.816348552917692      1.4286486426629226
H     2.6115673110824034      13.590846848707118      1.5207456042281207
H     2.351773617886583      12.618992766723979      0.5890293669064439
